<routes>
    <route id="route_ns" edges="n_t t_s" />
    <route id="route_we" edges="w_t t_e" />
    <flow id="flow_ns_uniform" route="route_ns" begin="0" end="600" period="6.0000" departSpeed="max" departPos="base" departLane="best" />
    <flow id="flow_we_uniform" route="route_we" begin="0" end="600" period="6.0000" departSpeed="max" departPos="base" departLane="best" />
</routes>