<routes>
    <route id="route_ns" edges="n_t t_s" />
    <route id="route_we" edges="w_t t_e" />
    <flow id="flow_ns_poisson" route="route_ns" begin="0" end="600" vehsPerHour="600" departSpeed="max" departPos="base" departLane="best" />
    <flow id="flow_we_poisson" route="route_we" begin="0" end="600" vehsPerHour="600" departSpeed="max" departPos="base" departLane="best" />
</routes>